*Heading
** Job name: JobRefinex1 Model name: PlateEllipticHolesRefinex1
** Generated by: Abaqus/CAE 2021
*Preprint, echo=NO, model=NO, history=NO, contact=NO
**
** PARTS
**
*Part, name=PlateEllipticHolesPart1
*Node
      1,        0.375,        0.625
      2,        0.375,           1.
      3,           0.,           1.
      4,           0.,        0.625
      5,         0.75,           1.
      6,         0.75,        0.875
      7,        0.875,        0.625
      8,           1.,        0.625
      9,           1.,           1.
     10,           0.,         0.25
     11,        0.125,         0.25
     12,        0.375,        0.375
     13,        0.625,        0.625
     14,         0.75,         0.25
     15,           1.,         0.25
     16,         0.75,        0.375
     17,         0.75,           0.
     18,           1.,           0.
     19,        0.375,           0.
     20,        0.375,        0.125
** ... 2159 like lines cut
*Element, type=CPS4R
  1,   1,  23, 442,  90
  2,  23,  24, 443, 442
  3,  24,  25, 444, 443
  4,  25,  26, 445, 444
  5,  26,  27, 446, 445
  6,  27,  28, 447, 446
  7,  28,  29, 448, 447
  8,  29,  30, 449, 448
  9,  30,  31, 450, 449
 10,  31,  32, 451, 450
 11,  32,  33, 452, 451
 12,  33,  34, 453, 452
 13,  34,  35, 454, 453
 14,  35,  36, 455, 454
 15,  36,  37, 456, 455
 16,  37,  38, 457, 456
 17,  38,  39, 458, 457
 18,  39,   2,  40, 458
 19,  90, 442, 459,  89
 20, 442, 443, 460, 459
** ... 2002 like lines cut
*Nset, nset=Set-1, generate
    1,  2179,     1
*Elset, elset=Set-1, generate
    1,  2022,     1
** Section: Section-1
*Solid Section, elset=Set-1, material=Steel
,
*End Part
**  
**
** ASSEMBLY
**
*Assembly, name=Assembly
**  
*Instance, name=PlateEllipticHolesPart1-1, part=PlateEllipticHolesPart1
*End Instance
**  
*End Assembly
** 
** MATERIALS
** 
*Material, name=Steel
*Elastic
210., 0.3
** ----------------------------------------------------------------
** 
** STEP: Step-1
** 
*Step, name=Step-1, nlgeom=NO
*Static
1., 1., 1e-05, 1.
** 
** BOUNDARY CONDITIONS
** 
** Name: BC-1 Type: Symmetry/Antisymmetry/Encastre
*Boundary
Set-1, ENCASTRE
** 
** LOADS
** 
** Name: Load-1   Type: Pressure
*Dsload
Surf-1, P, 1.
** 
** OUTPUT REQUESTS
** 
*Restart, write, frequency=0
** 
** FIELD OUTPUT: F-Output-1
** 
*Output, field, variable=PRESELECT
** 
** HISTORY OUTPUT: H-Output-1
** 
*Output, history, variable=PRESELECT
*End Step
